  0
SECTION
  2
ENTITIES
999
DXF created from EnergyPlus
999
Program Version,EnergyPlus-Linux-64 8.1.0.009, YMD=2014.08.26 07:09
999
Polygon Action,ThickPolyline
999
Color Scheme,Default
999
Text - True North
  0
TEXT
  8
1
  6
Continuous
 62
  3
 10
      -11.00000
 20
      -22.71150
 30
        0.10000
 40
 .25
  1
True North
 41
 0.0
  7
MONOTXT
210
0.0
220
0.0
230
1.0
999
Text - Building Title
  0
TEXT
  8
1
  6
Continuous
 62
  3
 10
      -14.00000
 20
      -26.71150
 30
        0.10000
 40
 .4
  1
Building - Office
 41
 0.0
  7
MONOTXT
210
0.0
220
0.0
230
1.0
999
North Arrow Stem
  0
3DFACE
  8
1
 62
  3
 10
      -10.00000
 20
      -22.71150
 30
        0.10000
 11
      -10.00000
 21
      -22.71150
 31
        0.00000
 12
      -10.00000
 22
      -25.71150
 32
        0.00000
 13
      -10.00000
 23
      -25.71150
 33
        0.10000
999
North Arrow Head 1
  0
3DFACE
  8
1
 62
  3
 10
      -10.00000
 20
      -22.71150
 30
        0.10000
 11
      -10.00000
 21
      -22.71150
 31
        0.00000
 12
      -10.50000
 22
      -23.57753
 32
        0.00000
 13
      -10.50000
 23
      -23.57753
 33
        0.10000
999
North Arrow Head 2
  0
3DFACE
  8
1
 62
  3
 10
      -10.00000
 20
      -22.71150
 30
        0.10000
 11
      -10.00000
 21
      -22.71150
 31
        0.00000
 12
       -9.50000
 22
      -23.57753
 32
        0.00000
 13
       -9.50000
 23
      -23.57753
 33
        0.10000
999
North Arrow Side 1
  0
3DFACE
  8
1
 62
  3
 10
      -10.50000
 20
      -21.21150
 30
        0.10000
 11
      -10.50000
 21
      -21.21150
 31
        0.00000
 12
      -10.50000
 22
      -22.21150
 32
        0.00000
 13
      -10.50000
 23
      -22.21150
 33
        0.10000
999
North Arrow Side 2
  0
3DFACE
  8
1
 62
  3
 10
      -10.50000
 20
      -21.21150
 30
        0.10000
 11
      -10.50000
 21
      -21.21150
 31
        0.00000
 12
       -9.50000
 22
      -22.21150
 32
        0.00000
 13
       -9.50000
 23
      -22.21150
 33
        0.10000
999
North Arrow Side 3
  0
3DFACE
  8
1
 62
  3
 10
       -9.50000
 20
      -21.21150
 30
        0.10000
 11
       -9.50000
 21
      -21.21150
 31
        0.00000
 12
       -9.50000
 22
      -22.21150
 32
        0.00000
 13
       -9.50000
 23
      -22.21150
 33
        0.10000
999
Zone Names
999
Zone=1:ZN_1_FLR_1_SEC_1
999
Zone=2:ZN_1_FLR_1_SEC_2
999
Zone=3:ZN_1_FLR_1_SEC_3
999
Zone=4:ZN_1_FLR_1_SEC_4
999
Zone=5:ZN_1_FLR_1_SEC_5
999
ZN_1_FLR_1_SEC_1:ZN_1_FLR_1_SEC_1_WALL_1
  0
3DFACE
  8
ZN_1_FLR_1_SEC_1
 62
 43
 10
        0.00000
 20
        0.00000
 30
        4.00000
 11
        0.00000
 21
        0.00000
 31
        0.00000
 12
       30.64178
 22
      -25.71150
 32
        0.00000
 13
       30.64178
 23
      -25.71150
 33
        4.00000
999
ZN_1_FLR_1_SEC_1:ZN_1_FLR_1_SEC_1_WALL_2
  0
3DFACE
  8
ZN_1_FLR_1_SEC_1
 62
 43
 10
       30.64178
 20
      -25.71150
 30
        4.00000
 11
       30.64178
 21
      -25.71150
 31
        0.00000
 12
       30.07849
 22
      -19.27314
 32
        0.00000
 13
       30.07849
 23
      -19.27314
 33
        4.00000
999
ZN_1_FLR_1_SEC_1:ZN_1_FLR_1_SEC_1_WALL_3
  0
3DFACE
  8
ZN_1_FLR_1_SEC_1
 62
 43
 10
       30.07849
 20
      -19.27314
 30
        4.00000
 11
       30.07849
 21
      -19.27314
 31
        0.00000
 12
        6.43836
 22
        0.56328
 32
        0.00000
 13
        6.43836
 23
        0.56328
 33
        4.00000
999
ZN_1_FLR_1_SEC_1:ZN_1_FLR_1_SEC_1_WALL_4
  0
3DFACE
  8
ZN_1_FLR_1_SEC_1
 62
 43
 10
        6.43836
 20
        0.56328
 30
        4.00000
 11
        6.43836
 21
        0.56328
 31
        0.00000
 12
        0.00000
 22
        0.00000
 32
        0.00000
 13
        0.00000
 23
        0.00000
 33
        4.00000
999
ZN_1_FLR_1_SEC_1:ZN_1_FLR_1_SEC_1_FLOOR
  0
3DFACE
  8
ZN_1_FLR_1_SEC_1
 62
  8
 10
        6.43836
 20
        0.56328
 30
        0.00000
 11
       30.07849
 21
      -19.27314
 31
        0.00000
 12
       30.64178
 22
      -25.71150
 32
        0.00000
 13
        0.00000
 23
        0.00000
 33
        0.00000
999
ZN_1_FLR_1_SEC_1:ZN_1_FLR_1_SEC_1_CEILING
  0
3DFACE
  8
ZN_1_FLR_1_SEC_1
 62
 15
 10
        0.00000
 20
        0.00000
 30
        4.00000
 11
       30.64178
 21
      -25.71150
 31
        4.00000
 12
       30.07849
 22
      -19.27314
 32
        4.00000
 13
        6.43836
 23
        0.56328
 33
        4.00000
999
ZN_1_FLR_1_SEC_2:ZN_1_FLR_1_SEC_2_WALL_1
  0
3DFACE
  8
ZN_1_FLR_1_SEC_2
 62
 43
 10
       30.64178
 20
      -25.71150
 30
        4.00000
 11
       30.64178
 21
      -25.71150
 31
        0.00000
 12
       43.49753
 22
      -10.39062
 32
        0.00000
 13
       43.49753
 23
      -10.39062
 33
        4.00000
999
ZN_1_FLR_1_SEC_2:ZN_1_FLR_1_SEC_2_WALL_2
  0
3DFACE
  8
ZN_1_FLR_1_SEC_2
 62
 43
 10
       43.49753
 20
      -10.39062
 30
        4.00000
 11
       43.49753
 21
      -10.39062
 31
        0.00000
 12
       37.05917
 22
      -10.95390
 32
        0.00000
 13
       37.05917
 23
      -10.95390
 33
        4.00000
999
ZN_1_FLR_1_SEC_2:ZN_1_FLR_1_SEC_2_WALL_3
  0
3DFACE
  8
ZN_1_FLR_1_SEC_2
 62
 43
 10
       37.05917
 20
      -10.95390
 30
        4.00000
 11
       37.05917
 21
      -10.95390
 31
        0.00000
 12
       30.07849
 22
      -19.27314
 32
        0.00000
 13
       30.07849
 23
      -19.27314
 33
        4.00000
999
ZN_1_FLR_1_SEC_2:ZN_1_FLR_1_SEC_2_WALL_4
  0
3DFACE
  8
ZN_1_FLR_1_SEC_2
 62
 43
 10
       30.07849
 20
      -19.27314
 30
        4.00000
 11
       30.07849
 21
      -19.27314
 31
        0.00000
 12
       30.64178
 22
      -25.71150
 32
        0.00000
 13
       30.64178
 23
      -25.71150
 33
        4.00000
999
ZN_1_FLR_1_SEC_2:ZN_1_FLR_1_SEC_2_FLOOR
  0
3DFACE
  8
ZN_1_FLR_1_SEC_2
 62
  8
 10
       30.07849
 20
      -19.27314
 30
        0.00000
 11
       37.05917
 21
      -10.95390
 31
        0.00000
 12
       43.49753
 22
      -10.39062
 32
        0.00000
 13
       30.64178
 23
      -25.71150
 33
        0.00000
999
ZN_1_FLR_1_SEC_2:ZN_1_FLR_1_SEC_2_CEILING
  0
3DFACE
  8
ZN_1_FLR_1_SEC_2
 62
 15
 10
       30.64178
 20
      -25.71150
 30
        4.00000
 11
       43.49753
 21
      -10.39062
 31
        4.00000
 12
       37.05917
 22
      -10.95390
 32
        4.00000
 13
       30.07849
 23
      -19.27314
 33
        4.00000
999
ZN_1_FLR_1_SEC_3:ZN_1_FLR_1_SEC_3_WALL_1
  0
3DFACE
  8
ZN_1_FLR_1_SEC_3
 62
 43
 10
       13.41904
 20
        8.88253
 30
        4.00000
 11
       13.41904
 21
        8.88253
 31
        0.00000
 12
       37.05917
 22
      -10.95390
 32
        0.00000
 13
       37.05917
 23
      -10.95390
 33
        4.00000
999
ZN_1_FLR_1_SEC_3:ZN_1_FLR_1_SEC_3_WALL_2
  0
3DFACE
  8
ZN_1_FLR_1_SEC_3
 62
 43
 10
       37.05917
 20
      -10.95390
 30
        4.00000
 11
       37.05917
 21
      -10.95390
 31
        0.00000
 12
       43.49753
 22
      -10.39062
 32
        0.00000
 13
       43.49753
 23
      -10.39062
 33
        4.00000
999
ZN_1_FLR_1_SEC_3:ZN_1_FLR_1_SEC_3_WALL_3
  0
3DFACE
  8
ZN_1_FLR_1_SEC_3
 62
 43
 10
       43.49753
 20
      -10.39062
 30
        4.00000
 11
       43.49753
 21
      -10.39062
 31
        0.00000
 12
       12.85575
 22
       15.32089
 32
        0.00000
 13
       12.85575
 23
       15.32089
 33
        4.00000
999
ZN_1_FLR_1_SEC_3:ZN_1_FLR_1_SEC_3_WALL_4
  0
3DFACE
  8
ZN_1_FLR_1_SEC_3
 62
 43
 10
       12.85575
 20
       15.32089
 30
        4.00000
 11
       12.85575
 21
       15.32089
 31
        0.00000
 12
       13.41904
 22
        8.88253
 32
        0.00000
 13
       13.41904
 23
        8.88253
 33
        4.00000
999
ZN_1_FLR_1_SEC_3:ZN_1_FLR_1_SEC_3_FLOOR
  0
3DFACE
  8
ZN_1_FLR_1_SEC_3
 62
  8
 10
       12.85575
 20
       15.32089
 30
        0.00000
 11
       43.49753
 21
      -10.39062
 31
        0.00000
 12
       37.05917
 22
      -10.95390
 32
        0.00000
 13
       13.41904
 23
        8.88253
 33
        0.00000
999
ZN_1_FLR_1_SEC_3:ZN_1_FLR_1_SEC_3_CEILING
  0
3DFACE
  8
ZN_1_FLR_1_SEC_3
 62
 15
 10
       13.41904
 20
        8.88253
 30
        4.00000
 11
       37.05917
 21
      -10.95390
 31
        4.00000
 12
       43.49753
 22
      -10.39062
 32
        4.00000
 13
       12.85575
 23
       15.32089
 33
        4.00000
999
ZN_1_FLR_1_SEC_4:ZN_1_FLR_1_SEC_4_WALL_1
  0
3DFACE
  8
ZN_1_FLR_1_SEC_4
 62
 43
 10
        0.00000
 20
        0.00000
 30
        4.00000
 11
        0.00000
 21
        0.00000
 31
        0.00000
 12
        6.43836
 22
        0.56328
 32
        0.00000
 13
        6.43836
 23
        0.56328
 33
        4.00000
999
ZN_1_FLR_1_SEC_4:ZN_1_FLR_1_SEC_4_WALL_2
  0
3DFACE
  8
ZN_1_FLR_1_SEC_4
 62
 43
 10
        6.43836
 20
        0.56328
 30
        4.00000
 11
        6.43836
 21
        0.56328
 31
        0.00000
 12
       13.41904
 22
        8.88253
 32
        0.00000
 13
       13.41904
 23
        8.88253
 33
        4.00000
999
ZN_1_FLR_1_SEC_4:ZN_1_FLR_1_SEC_4_WALL_3
  0
3DFACE
  8
ZN_1_FLR_1_SEC_4
 62
 43
 10
       13.41904
 20
        8.88253
 30
        4.00000
 11
       13.41904
 21
        8.88253
 31
        0.00000
 12
       12.85575
 22
       15.32089
 32
        0.00000
 13
       12.85575
 23
       15.32089
 33
        4.00000
999
ZN_1_FLR_1_SEC_4:ZN_1_FLR_1_SEC_4_WALL_4
  0
3DFACE
  8
ZN_1_FLR_1_SEC_4
 62
 43
 10
       12.85575
 20
       15.32089
 30
        4.00000
 11
       12.85575
 21
       15.32089
 31
        0.00000
 12
        0.00000
 22
        0.00000
 32
        0.00000
 13
        0.00000
 23
        0.00000
 33
        4.00000
999
ZN_1_FLR_1_SEC_4:ZN_1_FLR_1_SEC_4_FLOOR
  0
3DFACE
  8
ZN_1_FLR_1_SEC_4
 62
  8
 10
       12.85575
 20
       15.32089
 30
        0.00000
 11
       13.41904
 21
        8.88253
 31
        0.00000
 12
        6.43836
 22
        0.56328
 32
        0.00000
 13
        0.00000
 23
        0.00000
 33
        0.00000
999
ZN_1_FLR_1_SEC_4:ZN_1_FLR_1_SEC_4_CEILING
  0
3DFACE
  8
ZN_1_FLR_1_SEC_4
 62
 15
 10
        0.00000
 20
        0.00000
 30
        4.00000
 11
        6.43836
 21
        0.56328
 31
        4.00000
 12
       13.41904
 22
        8.88253
 32
        4.00000
 13
       12.85575
 23
       15.32089
 33
        4.00000
999
ZN_1_FLR_1_SEC_5:ZN_1_FLR_1_SEC_5_WALL_1
  0
3DFACE
  8
ZN_1_FLR_1_SEC_5
 62
 43
 10
        6.43836
 20
        0.56328
 30
        4.00000
 11
        6.43836
 21
        0.56328
 31
        0.00000
 12
       30.07849
 22
      -19.27314
 32
        0.00000
 13
       30.07849
 23
      -19.27314
 33
        4.00000
999
ZN_1_FLR_1_SEC_5:ZN_1_FLR_1_SEC_5_WALL_2
  0
3DFACE
  8
ZN_1_FLR_1_SEC_5
 62
 43
 10
       30.07849
 20
      -19.27314
 30
        4.00000
 11
       30.07849
 21
      -19.27314
 31
        0.00000
 12
       37.05917
 22
      -10.95390
 32
        0.00000
 13
       37.05917
 23
      -10.95390
 33
        4.00000
999
ZN_1_FLR_1_SEC_5:ZN_1_FLR_1_SEC_5_WALL_3
  0
3DFACE
  8
ZN_1_FLR_1_SEC_5
 62
 43
 10
       37.05917
 20
      -10.95390
 30
        4.00000
 11
       37.05917
 21
      -10.95390
 31
        0.00000
 12
       13.41904
 22
        8.88253
 32
        0.00000
 13
       13.41904
 23
        8.88253
 33
        4.00000
999
ZN_1_FLR_1_SEC_5:ZN_1_FLR_1_SEC_5_WALL_4
  0
3DFACE
  8
ZN_1_FLR_1_SEC_5
 62
 43
 10
       13.41904
 20
        8.88253
 30
        4.00000
 11
       13.41904
 21
        8.88253
 31
        0.00000
 12
        6.43836
 22
        0.56328
 32
        0.00000
 13
        6.43836
 23
        0.56328
 33
        4.00000
999
ZN_1_FLR_1_SEC_5:ZN_1_FLR_1_SEC_5_FLOOR
  0
3DFACE
  8
ZN_1_FLR_1_SEC_5
 62
  8
 10
       13.41904
 20
        8.88253
 30
        0.00000
 11
       37.05917
 21
      -10.95390
 31
        0.00000
 12
       30.07849
 22
      -19.27314
 32
        0.00000
 13
        6.43836
 23
        0.56328
 33
        0.00000
999
ZN_1_FLR_1_SEC_5:ZN_1_FLR_1_SEC_5_CEILING
  0
3DFACE
  8
ZN_1_FLR_1_SEC_5
 62
 15
 10
        6.43836
 20
        0.56328
 30
        4.00000
 11
       30.07849
 21
      -19.27314
 31
        4.00000
 12
       37.05917
 22
      -10.95390
 32
        4.00000
 13
       13.41904
 23
        8.88253
 33
        4.00000
999
ZN_1_FLR_1_SEC_1:DayRefPt:1
  0
CIRCLE
  8
ZN_1_FLR_1_SEC_1
 62
 10
 10
       16.78966
 20
      -11.10534
 30
        0.76200
 40
        0.20000
999
ZN_1_FLR_1_SEC_2:DayRefPt:1
  0
CIRCLE
  8
ZN_1_FLR_1_SEC_2
 62
 10
 10
       35.31924
 20
      -16.58229
 30
        0.76200
 40
        0.20000
999
ZN_1_FLR_1_SEC_3:DayRefPt:1
  0
CIRCLE
  8
ZN_1_FLR_1_SEC_3
 62
 10
 10
       26.70787
 20
        0.71473
 30
        0.76200
 40
        0.20000
999
ZN_1_FLR_1_SEC_4:DayRefPt:1
  0
CIRCLE
  8
ZN_1_FLR_1_SEC_4
 62
 10
 10
        8.17829
 20
        6.19167
 30
        0.76200
 40
        0.20000
999
ZN_1_FLR_1_SEC_5:DayRefPt:1
  0
CIRCLE
  8
ZN_1_FLR_1_SEC_5
 62
 10
 10
       21.74876
 20
       -5.19531
 30
        0.76200
 40
        0.20000
  0
ENDSEC
  0
EOF
