  0
SECTION
  2
ENTITIES
999
DXF created from EnergyPlus
999
Program Version,EnergyPlus-Linux-64 8.1.0.009, YMD=2014.08.29 09:27
999
Polygon Action,ThickPolyline
999
Color Scheme,Default
999
Text - True North
  0
TEXT
  8
1
  6
Continuous
 62
  3
 10
      -12.36064
 20
      -23.36064
 30
        0.10000
 40
 .25
  1
True North
 41
 0.0
  7
MONOTXT
210
0.0
220
0.0
230
1.0
999
Text - Building Title
  0
TEXT
  8
1
  6
Continuous
 62
  3
 10
      -15.36064
 20
      -27.36064
 30
        0.10000
 40
 .4
  1
Building - Office
 41
 0.0
  7
MONOTXT
210
0.0
220
0.0
230
1.0
999
North Arrow Stem
  0
3DFACE
  8
1
 62
  3
 10
      -11.36064
 20
      -23.36064
 30
        0.10000
 11
      -11.36064
 21
      -23.36064
 31
        0.00000
 12
      -11.36064
 22
      -26.36064
 32
        0.00000
 13
      -11.36064
 23
      -26.36064
 33
        0.10000
999
North Arrow Head 1
  0
3DFACE
  8
1
 62
  3
 10
      -11.36064
 20
      -23.36064
 30
        0.10000
 11
      -11.36064
 21
      -23.36064
 31
        0.00000
 12
      -11.86064
 22
      -24.22667
 32
        0.00000
 13
      -11.86064
 23
      -24.22667
 33
        0.10000
999
North Arrow Head 2
  0
3DFACE
  8
1
 62
  3
 10
      -11.36064
 20
      -23.36064
 30
        0.10000
 11
      -11.36064
 21
      -23.36064
 31
        0.00000
 12
      -10.86064
 22
      -24.22667
 32
        0.00000
 13
      -10.86064
 23
      -24.22667
 33
        0.10000
999
North Arrow Side 1
  0
3DFACE
  8
1
 62
  3
 10
      -11.86064
 20
      -21.86064
 30
        0.10000
 11
      -11.86064
 21
      -21.86064
 31
        0.00000
 12
      -11.86064
 22
      -22.86064
 32
        0.00000
 13
      -11.86064
 23
      -22.86064
 33
        0.10000
999
North Arrow Side 2
  0
3DFACE
  8
1
 62
  3
 10
      -11.86064
 20
      -21.86064
 30
        0.10000
 11
      -11.86064
 21
      -21.86064
 31
        0.00000
 12
      -10.86064
 22
      -22.86064
 32
        0.00000
 13
      -10.86064
 23
      -22.86064
 33
        0.10000
999
North Arrow Side 3
  0
3DFACE
  8
1
 62
  3
 10
      -10.86064
 20
      -21.86064
 30
        0.10000
 11
      -10.86064
 21
      -21.86064
 31
        0.00000
 12
      -10.86064
 22
      -22.86064
 32
        0.00000
 13
      -10.86064
 23
      -22.86064
 33
        0.10000
999
Zone Names
999
Zone=1:ZN_1_FLR_1_SEC_1
999
Zone=2:ZN_1_FLR_1_SEC_2
999
Zone=3:ZN_1_FLR_1_SEC_3
999
Zone=4:ZN_1_FLR_1_SEC_4
999
Zone=5:ZN_1_FLR_1_SEC_5
999
ZN_1_FLR_1_SEC_1:ZN_1_FLR_1_SEC_1_WALL_1
  0
3DFACE
  8
ZN_1_FLR_1_SEC_1
 62
 43
 10
        0.00000
 20
        0.00000
 30
        4.00000
 11
        0.00000
 21
        0.00000
 31
        0.00000
 12
       43.30127
 22
      -25.00000
 32
        0.00000
 13
       43.30127
 23
      -25.00000
 33
        4.00000
999
ZN_1_FLR_1_SEC_1:ZN_1_FLR_1_SEC_1_WALL_1_WINDOW_1
  0
3DFACE
  8
ZN_1_FLR_1_SEC_1
 62
143
 10
        0.04330
 20
       -0.02500
 30
        3.00000
 11
        0.04330
 21
       -0.02500
 31
        1.00000
 12
       43.25797
 22
      -24.97500
 32
        1.00000
 13
       43.25797
 23
      -24.97500
 33
        3.00000
999
ZN_1_FLR_1_SEC_1:ZN_1_FLR_1_SEC_1_WALL_2
  0
3DFACE
  8
ZN_1_FLR_1_SEC_1
 62
 43
 10
       43.30127
 20
      -25.00000
 30
        4.00000
 11
       43.30127
 21
      -25.00000
 31
        0.00000
 12
       41.74836
 22
      -19.20445
 32
        0.00000
 13
       41.74836
 23
      -19.20445
 33
        4.00000
999
ZN_1_FLR_1_SEC_1:ZN_1_FLR_1_SEC_1_WALL_3
  0
3DFACE
  8
ZN_1_FLR_1_SEC_1
 62
 43
 10
       41.74836
 20
      -19.20445
 30
        4.00000
 11
       41.74836
 21
      -19.20445
 31
        0.00000
 12
        5.79555
 22
        1.55291
 32
        0.00000
 13
        5.79555
 23
        1.55291
 33
        4.00000
999
ZN_1_FLR_1_SEC_1:ZN_1_FLR_1_SEC_1_WALL_4
  0
3DFACE
  8
ZN_1_FLR_1_SEC_1
 62
 43
 10
        5.79555
 20
        1.55291
 30
        4.00000
 11
        5.79555
 21
        1.55291
 31
        0.00000
 12
        0.00000
 22
        0.00000
 32
        0.00000
 13
        0.00000
 23
        0.00000
 33
        4.00000
999
ZN_1_FLR_1_SEC_1:ZN_1_FLR_1_SEC_1_FLOOR
  0
3DFACE
  8
ZN_1_FLR_1_SEC_1
 62
  8
 10
        5.79555
 20
        1.55291
 30
        0.00000
 11
       41.74836
 21
      -19.20445
 31
        0.00000
 12
       43.30127
 22
      -25.00000
 32
        0.00000
 13
        0.00000
 23
        0.00000
 33
        0.00000
999
ZN_1_FLR_1_SEC_1:ZN_1_FLR_1_SEC_1_CEILING
  0
3DFACE
  8
ZN_1_FLR_1_SEC_1
 62
 15
 10
        0.00000
 20
        0.00000
 30
        4.00000
 11
       43.30127
 21
      -25.00000
 31
        4.00000
 12
       41.74836
 22
      -19.20445
 32
        4.00000
 13
        5.79555
 23
        1.55291
 33
        4.00000
999
ZN_1_FLR_1_SEC_1:ZN_1_FLR_1_SEC_1_WALL_1:SHADING_SOUTH_1
  0
3DFACE
  8
ZN_1_FLR_1_SEC_1
 62
 13
 10
       -0.75670
 20
       -1.41064
 30
        3.00000
 11
        0.04330
 21
       -0.02500
 31
        3.00000
 12
       43.25797
 22
      -24.97500
 32
        3.00000
 13
       42.45797
 23
      -26.36064
 33
        3.00000
999
ZN_1_FLR_1_SEC_1:Mir-ZN_1_FLR_1_SEC_1_WALL_1:SHADING_SOUTH_1
  0
3DFACE
  8
ZN_1_FLR_1_SEC_1
 62
 13
 10
       42.45797
 20
      -26.36064
 30
        3.00000
 11
       43.25797
 21
      -24.97500
 31
        3.00000
 12
        0.04330
 22
       -0.02500
 32
        3.00000
 13
       -0.75670
 23
       -1.41064
 33
        3.00000
999
ZN_1_FLR_1_SEC_2:ZN_1_FLR_1_SEC_2_WALL_1
  0
3DFACE
  8
ZN_1_FLR_1_SEC_2
 62
 43
 10
       43.30127
 20
      -25.00000
 30
        4.00000
 11
       43.30127
 21
      -25.00000
 31
        0.00000
 12
       58.30127
 22
        0.98076
 32
        0.00000
 13
       58.30127
 23
        0.98076
 33
        4.00000
999
ZN_1_FLR_1_SEC_2:ZN_1_FLR_1_SEC_2_WALL_1_WINDOW_1
  0
3DFACE
  8
ZN_1_FLR_1_SEC_2
 62
143
 10
       43.32627
 20
      -24.95670
 30
        2.80000
 11
       43.32627
 21
      -24.95670
 31
        1.20000
 12
       58.27627
 22
        0.93746
 32
        1.20000
 13
       58.27627
 23
        0.93746
 33
        2.80000
999
ZN_1_FLR_1_SEC_2:ZN_1_FLR_1_SEC_2_WALL_2
  0
3DFACE
  8
ZN_1_FLR_1_SEC_2
 62
 43
 10
       58.30127
 20
        0.98076
 30
        4.00000
 11
       58.30127
 21
        0.98076
 31
        0.00000
 12
       52.50572
 22
       -0.57215
 32
        0.00000
 13
       52.50572
 23
       -0.57215
 33
        4.00000
999
ZN_1_FLR_1_SEC_2:ZN_1_FLR_1_SEC_2_WALL_3
  0
3DFACE
  8
ZN_1_FLR_1_SEC_2
 62
 43
 10
       52.50572
 20
       -0.57215
 30
        4.00000
 11
       52.50572
 21
       -0.57215
 31
        0.00000
 12
       41.74836
 22
      -19.20445
 32
        0.00000
 13
       41.74836
 23
      -19.20445
 33
        4.00000
999
ZN_1_FLR_1_SEC_2:ZN_1_FLR_1_SEC_2_WALL_4
  0
3DFACE
  8
ZN_1_FLR_1_SEC_2
 62
 43
 10
       41.74836
 20
      -19.20445
 30
        4.00000
 11
       41.74836
 21
      -19.20445
 31
        0.00000
 12
       43.30127
 22
      -25.00000
 32
        0.00000
 13
       43.30127
 23
      -25.00000
 33
        4.00000
999
ZN_1_FLR_1_SEC_2:ZN_1_FLR_1_SEC_2_FLOOR
  0
3DFACE
  8
ZN_1_FLR_1_SEC_2
 62
  8
 10
       41.74836
 20
      -19.20445
 30
        0.00000
 11
       52.50572
 21
       -0.57215
 31
        0.00000
 12
       58.30127
 22
        0.98076
 32
        0.00000
 13
       43.30127
 23
      -25.00000
 33
        0.00000
999
ZN_1_FLR_1_SEC_2:ZN_1_FLR_1_SEC_2_CEILING
  0
3DFACE
  8
ZN_1_FLR_1_SEC_2
 62
 15
 10
       43.30127
 20
      -25.00000
 30
        4.00000
 11
       58.30127
 21
        0.98076
 31
        4.00000
 12
       52.50572
 22
       -0.57215
 32
        4.00000
 13
       41.74836
 23
      -19.20445
 33
        4.00000
999
ZN_1_FLR_1_SEC_2:ZN_1_FLR_1_SEC_2_WALL_1:SHADING_EAST_1
  0
3DFACE
  8
ZN_1_FLR_1_SEC_2
 62
 13
 10
       44.71191
 20
      -25.75670
 30
        2.80000
 11
       43.32627
 21
      -24.95670
 31
        2.80000
 12
       58.27627
 22
        0.93746
 32
        2.80000
 13
       59.66191
 23
        0.13746
 33
        2.80000
999
ZN_1_FLR_1_SEC_2:Mir-ZN_1_FLR_1_SEC_2_WALL_1:SHADING_EAST_1
  0
3DFACE
  8
ZN_1_FLR_1_SEC_2
 62
 13
 10
       59.66191
 20
        0.13746
 30
        2.80000
 11
       58.27627
 21
        0.93746
 31
        2.80000
 12
       43.32627
 22
      -24.95670
 32
        2.80000
 13
       44.71191
 23
      -25.75670
 33
        2.80000
999
ZN_1_FLR_1_SEC_3:ZN_1_FLR_1_SEC_3_WALL_1
  0
3DFACE
  8
ZN_1_FLR_1_SEC_3
 62
 43
 10
       16.55291
 20
       20.18521
 30
        4.00000
 11
       16.55291
 21
       20.18521
 31
        0.00000
 12
       52.50572
 22
       -0.57215
 32
        0.00000
 13
       52.50572
 23
       -0.57215
 33
        4.00000
999
ZN_1_FLR_1_SEC_3:ZN_1_FLR_1_SEC_3_WALL_2
  0
3DFACE
  8
ZN_1_FLR_1_SEC_3
 62
 43
 10
       52.50572
 20
       -0.57215
 30
        4.00000
 11
       52.50572
 21
       -0.57215
 31
        0.00000
 12
       58.30127
 22
        0.98076
 32
        0.00000
 13
       58.30127
 23
        0.98076
 33
        4.00000
999
ZN_1_FLR_1_SEC_3:ZN_1_FLR_1_SEC_3_WALL_3
  0
3DFACE
  8
ZN_1_FLR_1_SEC_3
 62
 43
 10
       58.30127
 20
        0.98076
 30
        4.00000
 11
       58.30127
 21
        0.98076
 31
        0.00000
 12
       15.00000
 22
       25.98076
 32
        0.00000
 13
       15.00000
 23
       25.98076
 33
        4.00000
999
ZN_1_FLR_1_SEC_3:ZN_1_FLR_1_SEC_3_WALL_3_WINDOW_1
  0
3DFACE
  8
ZN_1_FLR_1_SEC_3
 62
143
 10
       58.30127
 20
        0.98076
 30
        2.20000
 11
       58.30127
 21
        0.98076
 31
        1.80000
 12
       15.00000
 22
       25.98076
 32
        1.80000
 13
       15.00000
 23
       25.98076
 33
        2.20000
999
ZN_1_FLR_1_SEC_3:ZN_1_FLR_1_SEC_3_WALL_4
  0
3DFACE
  8
ZN_1_FLR_1_SEC_3
 62
 43
 10
       15.00000
 20
       25.98076
 30
        4.00000
 11
       15.00000
 21
       25.98076
 31
        0.00000
 12
       16.55291
 22
       20.18521
 32
        0.00000
 13
       16.55291
 23
       20.18521
 33
        4.00000
999
ZN_1_FLR_1_SEC_3:ZN_1_FLR_1_SEC_3_FLOOR
  0
3DFACE
  8
ZN_1_FLR_1_SEC_3
 62
  8
 10
       15.00000
 20
       25.98076
 30
        0.00000
 11
       58.30127
 21
        0.98076
 31
        0.00000
 12
       52.50572
 22
       -0.57215
 32
        0.00000
 13
       16.55291
 23
       20.18521
 33
        0.00000
999
ZN_1_FLR_1_SEC_3:ZN_1_FLR_1_SEC_3_CEILING
  0
3DFACE
  8
ZN_1_FLR_1_SEC_3
 62
 15
 10
       16.55291
 20
       20.18521
 30
        4.00000
 11
       52.50572
 21
       -0.57215
 31
        4.00000
 12
       58.30127
 22
        0.98076
 32
        4.00000
 13
       15.00000
 23
       25.98076
 33
        4.00000
999
ZN_1_FLR_1_SEC_3:ZN_1_FLR_1_SEC_3_WALL_3:SHADING_NORTH_1
  0
3DFACE
  8
ZN_1_FLR_1_SEC_3
 62
 13
 10
       59.10127
 20
        2.36640
 30
        2.20000
 11
       58.30127
 21
        0.98076
 31
        2.20000
 12
       15.00000
 22
       25.98076
 32
        2.20000
 13
       15.80000
 23
       27.36640
 33
        2.20000
999
ZN_1_FLR_1_SEC_3:Mir-ZN_1_FLR_1_SEC_3_WALL_3:SHADING_NORTH_1
  0
3DFACE
  8
ZN_1_FLR_1_SEC_3
 62
 13
 10
       15.80000
 20
       27.36640
 30
        2.20000
 11
       15.00000
 21
       25.98076
 31
        2.20000
 12
       58.30127
 22
        0.98076
 32
        2.20000
 13
       59.10127
 23
        2.36640
 33
        2.20000
999
ZN_1_FLR_1_SEC_4:ZN_1_FLR_1_SEC_4_WALL_1
  0
3DFACE
  8
ZN_1_FLR_1_SEC_4
 62
 43
 10
        0.00000
 20
        0.00000
 30
        4.00000
 11
        0.00000
 21
        0.00000
 31
        0.00000
 12
        5.79555
 22
        1.55291
 32
        0.00000
 13
        5.79555
 23
        1.55291
 33
        4.00000
999
ZN_1_FLR_1_SEC_4:ZN_1_FLR_1_SEC_4_WALL_2
  0
3DFACE
  8
ZN_1_FLR_1_SEC_4
 62
 43
 10
        5.79555
 20
        1.55291
 30
        4.00000
 11
        5.79555
 21
        1.55291
 31
        0.00000
 12
       16.55291
 22
       20.18521
 32
        0.00000
 13
       16.55291
 23
       20.18521
 33
        4.00000
999
ZN_1_FLR_1_SEC_4:ZN_1_FLR_1_SEC_4_WALL_3
  0
3DFACE
  8
ZN_1_FLR_1_SEC_4
 62
 43
 10
       16.55291
 20
       20.18521
 30
        4.00000
 11
       16.55291
 21
       20.18521
 31
        0.00000
 12
       15.00000
 22
       25.98076
 32
        0.00000
 13
       15.00000
 23
       25.98076
 33
        4.00000
999
ZN_1_FLR_1_SEC_4:ZN_1_FLR_1_SEC_4_WALL_4
  0
3DFACE
  8
ZN_1_FLR_1_SEC_4
 62
 43
 10
       15.00000
 20
       25.98076
 30
        4.00000
 11
       15.00000
 21
       25.98076
 31
        0.00000
 12
        0.00000
 22
        0.00000
 32
        0.00000
 13
        0.00000
 23
        0.00000
 33
        4.00000
999
ZN_1_FLR_1_SEC_4:ZN_1_FLR_1_SEC_4_WALL_4_WINDOW_1
  0
3DFACE
  8
ZN_1_FLR_1_SEC_4
 62
143
 10
       14.97500
 20
       25.93746
 30
        3.80000
 11
       14.97500
 21
       25.93746
 31
        0.20000
 12
        0.02500
 22
        0.04330
 32
        0.20000
 13
        0.02500
 23
        0.04330
 33
        3.80000
999
ZN_1_FLR_1_SEC_4:ZN_1_FLR_1_SEC_4_FLOOR
  0
3DFACE
  8
ZN_1_FLR_1_SEC_4
 62
  8
 10
       15.00000
 20
       25.98076
 30
        0.00000
 11
       16.55291
 21
       20.18521
 31
        0.00000
 12
        5.79555
 22
        1.55291
 32
        0.00000
 13
        0.00000
 23
        0.00000
 33
        0.00000
999
ZN_1_FLR_1_SEC_4:ZN_1_FLR_1_SEC_4_CEILING
  0
3DFACE
  8
ZN_1_FLR_1_SEC_4
 62
 15
 10
        0.00000
 20
        0.00000
 30
        4.00000
 11
        5.79555
 21
        1.55291
 31
        4.00000
 12
       16.55291
 22
       20.18521
 32
        4.00000
 13
       15.00000
 23
       25.98076
 33
        4.00000
999
ZN_1_FLR_1_SEC_4:ZN_1_FLR_1_SEC_4_WALL_4:SHADING_WEST_1
  0
3DFACE
  8
ZN_1_FLR_1_SEC_4
 62
 13
 10
       13.58936
 20
       26.73746
 30
        3.80000
 11
       14.97500
 21
       25.93746
 31
        3.80000
 12
        0.02500
 22
        0.04330
 32
        3.80000
 13
       -1.36064
 23
        0.84330
 33
        3.80000
999
ZN_1_FLR_1_SEC_4:Mir-ZN_1_FLR_1_SEC_4_WALL_4:SHADING_WEST_1
  0
3DFACE
  8
ZN_1_FLR_1_SEC_4
 62
 13
 10
       -1.36064
 20
        0.84330
 30
        3.80000
 11
        0.02500
 21
        0.04330
 31
        3.80000
 12
       14.97500
 22
       25.93746
 32
        3.80000
 13
       13.58936
 23
       26.73746
 33
        3.80000
999
ZN_1_FLR_1_SEC_5:ZN_1_FLR_1_SEC_5_WALL_1
  0
3DFACE
  8
ZN_1_FLR_1_SEC_5
 62
 43
 10
        5.79555
 20
        1.55291
 30
        4.00000
 11
        5.79555
 21
        1.55291
 31
        0.00000
 12
       41.74836
 22
      -19.20445
 32
        0.00000
 13
       41.74836
 23
      -19.20445
 33
        4.00000
999
ZN_1_FLR_1_SEC_5:ZN_1_FLR_1_SEC_5_WALL_2
  0
3DFACE
  8
ZN_1_FLR_1_SEC_5
 62
 43
 10
       41.74836
 20
      -19.20445
 30
        4.00000
 11
       41.74836
 21
      -19.20445
 31
        0.00000
 12
       52.50572
 22
       -0.57215
 32
        0.00000
 13
       52.50572
 23
       -0.57215
 33
        4.00000
999
ZN_1_FLR_1_SEC_5:ZN_1_FLR_1_SEC_5_WALL_3
  0
3DFACE
  8
ZN_1_FLR_1_SEC_5
 62
 43
 10
       52.50572
 20
       -0.57215
 30
        4.00000
 11
       52.50572
 21
       -0.57215
 31
        0.00000
 12
       16.55291
 22
       20.18521
 32
        0.00000
 13
       16.55291
 23
       20.18521
 33
        4.00000
999
ZN_1_FLR_1_SEC_5:ZN_1_FLR_1_SEC_5_WALL_4
  0
3DFACE
  8
ZN_1_FLR_1_SEC_5
 62
 43
 10
       16.55291
 20
       20.18521
 30
        4.00000
 11
       16.55291
 21
       20.18521
 31
        0.00000
 12
        5.79555
 22
        1.55291
 32
        0.00000
 13
        5.79555
 23
        1.55291
 33
        4.00000
999
ZN_1_FLR_1_SEC_5:ZN_1_FLR_1_SEC_5_FLOOR
  0
3DFACE
  8
ZN_1_FLR_1_SEC_5
 62
  8
 10
       16.55291
 20
       20.18521
 30
        0.00000
 11
       52.50572
 21
       -0.57215
 31
        0.00000
 12
       41.74836
 22
      -19.20445
 32
        0.00000
 13
        5.79555
 23
        1.55291
 33
        0.00000
999
ZN_1_FLR_1_SEC_5:ZN_1_FLR_1_SEC_5_CEILING
  0
3DFACE
  8
ZN_1_FLR_1_SEC_5
 62
 15
 10
        5.79555
 20
        1.55291
 30
        4.00000
 11
       41.74836
 21
      -19.20445
 31
        4.00000
 12
       52.50572
 22
       -0.57215
 32
        4.00000
 13
       16.55291
 23
       20.18521
 33
        4.00000
999
ZN_1_FLR_1_SEC_1:DayRefPt:1
  0
CIRCLE
  8
ZN_1_FLR_1_SEC_1
 62
 10
 10
       18.46301
 20
       -8.02113
 30
        0.76200
 40
        0.20000
999
ZN_1_FLR_1_SEC_2:DayRefPt:1
  0
CIRCLE
  8
ZN_1_FLR_1_SEC_2
 62
 10
 10
       46.32240
 20
      -15.19725
 30
        0.76200
 40
        0.20000
999
ZN_1_FLR_1_SEC_3:DayRefPt:1
  0
CIRCLE
  8
ZN_1_FLR_1_SEC_3
 62
 10
 10
       31.05819
 20
       14.44908
 30
        0.76200
 40
        0.20000
999
ZN_1_FLR_1_SEC_4:DayRefPt:1
  0
CIRCLE
  8
ZN_1_FLR_1_SEC_4
 62
 10
 10
        6.97887
 20
        7.51775
 30
        0.76200
 40
        0.20000
999
ZN_1_FLR_1_SEC_5:DayRefPt:1
  0
CIRCLE
  8
ZN_1_FLR_1_SEC_5
 62
 10
 10
       21.87333
 20
       -1.45957
 30
        0.76200
 40
        0.20000
  0
ENDSEC
  0
EOF
