  0
SECTION
  2
ENTITIES
999
DXF created from EnergyPlus
999
Program Version,EnergyPlus-Linux-64 8.1.0.009, YMD=2014.08.26 07:25
999
Polygon Action,ThickPolyline
999
Color Scheme,Default
999
Text - True North
  0
TEXT
  8
1
  6
Continuous
 62
  3
 10
      -11.00000
 20
        3.00000
 30
        0.10000
 40
 .25
  1
True North
 41
 0.0
  7
MONOTXT
210
0.0
220
0.0
230
1.0
999
Text - Building Title
  0
TEXT
  8
1
  6
Continuous
 62
  3
 10
      -14.00000
 20
       -1.00000
 30
        0.10000
 40
 .4
  1
Building - Office
 41
 0.0
  7
MONOTXT
210
0.0
220
0.0
230
1.0
999
North Arrow Stem
  0
3DFACE
  8
1
 62
  3
 10
      -10.00000
 20
        3.00000
 30
        0.10000
 11
      -10.00000
 21
        3.00000
 31
        0.00000
 12
      -10.00000
 22
        0.00000
 32
        0.00000
 13
      -10.00000
 23
        0.00000
 33
        0.10000
999
North Arrow Head 1
  0
3DFACE
  8
1
 62
  3
 10
      -10.00000
 20
        3.00000
 30
        0.10000
 11
      -10.00000
 21
        3.00000
 31
        0.00000
 12
      -10.50000
 22
        2.13397
 32
        0.00000
 13
      -10.50000
 23
        2.13397
 33
        0.10000
999
North Arrow Head 2
  0
3DFACE
  8
1
 62
  3
 10
      -10.00000
 20
        3.00000
 30
        0.10000
 11
      -10.00000
 21
        3.00000
 31
        0.00000
 12
       -9.50000
 22
        2.13397
 32
        0.00000
 13
       -9.50000
 23
        2.13397
 33
        0.10000
999
North Arrow Side 1
  0
3DFACE
  8
1
 62
  3
 10
      -10.50000
 20
        4.50000
 30
        0.10000
 11
      -10.50000
 21
        4.50000
 31
        0.00000
 12
      -10.50000
 22
        3.50000
 32
        0.00000
 13
      -10.50000
 23
        3.50000
 33
        0.10000
999
North Arrow Side 2
  0
3DFACE
  8
1
 62
  3
 10
      -10.50000
 20
        4.50000
 30
        0.10000
 11
      -10.50000
 21
        4.50000
 31
        0.00000
 12
       -9.50000
 22
        3.50000
 32
        0.00000
 13
       -9.50000
 23
        3.50000
 33
        0.10000
999
North Arrow Side 3
  0
3DFACE
  8
1
 62
  3
 10
       -9.50000
 20
        4.50000
 30
        0.10000
 11
       -9.50000
 21
        4.50000
 31
        0.00000
 12
       -9.50000
 22
        3.50000
 32
        0.00000
 13
       -9.50000
 23
        3.50000
 33
        0.10000
999
Zone Names
999
Zone=1:ZN_1_FLR_1_SEC_1
999
Zone=2:ZN_1_FLR_1_SEC_2
999
Zone=3:ZN_1_FLR_1_SEC_3
999
Zone=4:ZN_1_FLR_1_SEC_4
999
Zone=5:ZN_1_FLR_1_SEC_5
999
ZN_1_FLR_1_SEC_1:ZN_1_FLR_1_SEC_1_WALL_1
  0
3DFACE
  8
ZN_1_FLR_1_SEC_1
 62
 43
 10
        0.00000
 20
        0.00000
 30
        4.00000
 11
        0.00000
 21
        0.00000
 31
        0.00000
 12
       40.00000
 22
        0.00000
 32
        0.00000
 13
       40.00000
 23
        0.00000
 33
        4.00000
999
ZN_1_FLR_1_SEC_1:ZN_1_FLR_1_SEC_1_WALL_2
  0
3DFACE
  8
ZN_1_FLR_1_SEC_1
 62
 43
 10
       40.00000
 20
        0.00000
 30
        4.00000
 11
       40.00000
 21
        0.00000
 31
        0.00000
 12
       35.75736
 22
        4.24264
 32
        0.00000
 13
       35.75736
 23
        4.24264
 33
        4.00000
999
ZN_1_FLR_1_SEC_1:ZN_1_FLR_1_SEC_1_WALL_3
  0
3DFACE
  8
ZN_1_FLR_1_SEC_1
 62
 43
 10
       35.75736
 20
        4.24264
 30
        4.00000
 11
       35.75736
 21
        4.24264
 31
        0.00000
 12
        4.24264
 22
        4.24264
 32
        0.00000
 13
        4.24264
 23
        4.24264
 33
        4.00000
999
ZN_1_FLR_1_SEC_1:ZN_1_FLR_1_SEC_1_WALL_4
  0
3DFACE
  8
ZN_1_FLR_1_SEC_1
 62
 43
 10
        4.24264
 20
        4.24264
 30
        4.00000
 11
        4.24264
 21
        4.24264
 31
        0.00000
 12
        0.00000
 22
        0.00000
 32
        0.00000
 13
        0.00000
 23
        0.00000
 33
        4.00000
999
ZN_1_FLR_1_SEC_1:ZN_1_FLR_1_SEC_1_FLOOR
  0
3DFACE
  8
ZN_1_FLR_1_SEC_1
 62
  8
 10
        4.24264
 20
        4.24264
 30
        0.00000
 11
       35.75736
 21
        4.24264
 31
        0.00000
 12
       40.00000
 22
        0.00000
 32
        0.00000
 13
        0.00000
 23
        0.00000
 33
        0.00000
999
ZN_1_FLR_1_SEC_1:ZN_1_FLR_1_SEC_1_CEILING
  0
3DFACE
  8
ZN_1_FLR_1_SEC_1
 62
 15
 10
        0.00000
 20
        0.00000
 30
        4.00000
 11
       40.00000
 21
        0.00000
 31
        4.00000
 12
       35.75736
 22
        4.24264
 32
        4.00000
 13
        4.24264
 23
        4.24264
 33
        4.00000
999
ZN_1_FLR_1_SEC_2:ZN_1_FLR_1_SEC_2_WALL_1
  0
3DFACE
  8
ZN_1_FLR_1_SEC_2
 62
 43
 10
       40.00000
 20
        0.00000
 30
        4.00000
 11
       40.00000
 21
        0.00000
 31
        0.00000
 12
       40.00000
 22
       20.00000
 32
        0.00000
 13
       40.00000
 23
       20.00000
 33
        4.00000
999
ZN_1_FLR_1_SEC_2:ZN_1_FLR_1_SEC_2_WALL_2
  0
3DFACE
  8
ZN_1_FLR_1_SEC_2
 62
 43
 10
       40.00000
 20
       20.00000
 30
        4.00000
 11
       40.00000
 21
       20.00000
 31
        0.00000
 12
       35.75736
 22
       15.75736
 32
        0.00000
 13
       35.75736
 23
       15.75736
 33
        4.00000
999
ZN_1_FLR_1_SEC_2:ZN_1_FLR_1_SEC_2_WALL_3
  0
3DFACE
  8
ZN_1_FLR_1_SEC_2
 62
 43
 10
       35.75736
 20
       15.75736
 30
        4.00000
 11
       35.75736
 21
       15.75736
 31
        0.00000
 12
       35.75736
 22
        4.24264
 32
        0.00000
 13
       35.75736
 23
        4.24264
 33
        4.00000
999
ZN_1_FLR_1_SEC_2:ZN_1_FLR_1_SEC_2_WALL_4
  0
3DFACE
  8
ZN_1_FLR_1_SEC_2
 62
 43
 10
       35.75736
 20
        4.24264
 30
        4.00000
 11
       35.75736
 21
        4.24264
 31
        0.00000
 12
       40.00000
 22
        0.00000
 32
        0.00000
 13
       40.00000
 23
        0.00000
 33
        4.00000
999
ZN_1_FLR_1_SEC_2:ZN_1_FLR_1_SEC_2_FLOOR
  0
3DFACE
  8
ZN_1_FLR_1_SEC_2
 62
  8
 10
       35.75736
 20
        4.24264
 30
        0.00000
 11
       35.75736
 21
       15.75736
 31
        0.00000
 12
       40.00000
 22
       20.00000
 32
        0.00000
 13
       40.00000
 23
        0.00000
 33
        0.00000
999
ZN_1_FLR_1_SEC_2:ZN_1_FLR_1_SEC_2_CEILING
  0
3DFACE
  8
ZN_1_FLR_1_SEC_2
 62
 15
 10
       40.00000
 20
        0.00000
 30
        4.00000
 11
       40.00000
 21
       20.00000
 31
        4.00000
 12
       35.75736
 22
       15.75736
 32
        4.00000
 13
       35.75736
 23
        4.24264
 33
        4.00000
999
ZN_1_FLR_1_SEC_3:ZN_1_FLR_1_SEC_3_WALL_1
  0
3DFACE
  8
ZN_1_FLR_1_SEC_3
 62
 43
 10
        4.24264
 20
       15.75736
 30
        4.00000
 11
        4.24264
 21
       15.75736
 31
        0.00000
 12
       35.75736
 22
       15.75736
 32
        0.00000
 13
       35.75736
 23
       15.75736
 33
        4.00000
999
ZN_1_FLR_1_SEC_3:ZN_1_FLR_1_SEC_3_WALL_2
  0
3DFACE
  8
ZN_1_FLR_1_SEC_3
 62
 43
 10
       35.75736
 20
       15.75736
 30
        4.00000
 11
       35.75736
 21
       15.75736
 31
        0.00000
 12
       40.00000
 22
       20.00000
 32
        0.00000
 13
       40.00000
 23
       20.00000
 33
        4.00000
999
ZN_1_FLR_1_SEC_3:ZN_1_FLR_1_SEC_3_WALL_3
  0
3DFACE
  8
ZN_1_FLR_1_SEC_3
 62
 43
 10
       40.00000
 20
       20.00000
 30
        4.00000
 11
       40.00000
 21
       20.00000
 31
        0.00000
 12
        0.00000
 22
       20.00000
 32
        0.00000
 13
        0.00000
 23
       20.00000
 33
        4.00000
999
ZN_1_FLR_1_SEC_3:ZN_1_FLR_1_SEC_3_WALL_4
  0
3DFACE
  8
ZN_1_FLR_1_SEC_3
 62
 43
 10
        0.00000
 20
       20.00000
 30
        4.00000
 11
        0.00000
 21
       20.00000
 31
        0.00000
 12
        4.24264
 22
       15.75736
 32
        0.00000
 13
        4.24264
 23
       15.75736
 33
        4.00000
999
ZN_1_FLR_1_SEC_3:ZN_1_FLR_1_SEC_3_FLOOR
  0
3DFACE
  8
ZN_1_FLR_1_SEC_3
 62
  8
 10
        0.00000
 20
       20.00000
 30
        0.00000
 11
       40.00000
 21
       20.00000
 31
        0.00000
 12
       35.75736
 22
       15.75736
 32
        0.00000
 13
        4.24264
 23
       15.75736
 33
        0.00000
999
ZN_1_FLR_1_SEC_3:ZN_1_FLR_1_SEC_3_CEILING
  0
3DFACE
  8
ZN_1_FLR_1_SEC_3
 62
 15
 10
        4.24264
 20
       15.75736
 30
        4.00000
 11
       35.75736
 21
       15.75736
 31
        4.00000
 12
       40.00000
 22
       20.00000
 32
        4.00000
 13
        0.00000
 23
       20.00000
 33
        4.00000
999
ZN_1_FLR_1_SEC_4:ZN_1_FLR_1_SEC_4_WALL_1
  0
3DFACE
  8
ZN_1_FLR_1_SEC_4
 62
 43
 10
        0.00000
 20
        0.00000
 30
        4.00000
 11
        0.00000
 21
        0.00000
 31
        0.00000
 12
        4.24264
 22
        4.24264
 32
        0.00000
 13
        4.24264
 23
        4.24264
 33
        4.00000
999
ZN_1_FLR_1_SEC_4:ZN_1_FLR_1_SEC_4_WALL_2
  0
3DFACE
  8
ZN_1_FLR_1_SEC_4
 62
 43
 10
        4.24264
 20
        4.24264
 30
        4.00000
 11
        4.24264
 21
        4.24264
 31
        0.00000
 12
        4.24264
 22
       15.75736
 32
        0.00000
 13
        4.24264
 23
       15.75736
 33
        4.00000
999
ZN_1_FLR_1_SEC_4:ZN_1_FLR_1_SEC_4_WALL_3
  0
3DFACE
  8
ZN_1_FLR_1_SEC_4
 62
 43
 10
        4.24264
 20
       15.75736
 30
        4.00000
 11
        4.24264
 21
       15.75736
 31
        0.00000
 12
        0.00000
 22
       20.00000
 32
        0.00000
 13
        0.00000
 23
       20.00000
 33
        4.00000
999
ZN_1_FLR_1_SEC_4:ZN_1_FLR_1_SEC_4_WALL_4
  0
3DFACE
  8
ZN_1_FLR_1_SEC_4
 62
 43
 10
        0.00000
 20
       20.00000
 30
        4.00000
 11
        0.00000
 21
       20.00000
 31
        0.00000
 12
        0.00000
 22
        0.00000
 32
        0.00000
 13
        0.00000
 23
        0.00000
 33
        4.00000
999
ZN_1_FLR_1_SEC_4:ZN_1_FLR_1_SEC_4_FLOOR
  0
3DFACE
  8
ZN_1_FLR_1_SEC_4
 62
  8
 10
        0.00000
 20
       20.00000
 30
        0.00000
 11
        4.24264
 21
       15.75736
 31
        0.00000
 12
        4.24264
 22
        4.24264
 32
        0.00000
 13
        0.00000
 23
        0.00000
 33
        0.00000
999
ZN_1_FLR_1_SEC_4:ZN_1_FLR_1_SEC_4_CEILING
  0
3DFACE
  8
ZN_1_FLR_1_SEC_4
 62
 15
 10
        0.00000
 20
        0.00000
 30
        4.00000
 11
        4.24264
 21
        4.24264
 31
        4.00000
 12
        4.24264
 22
       15.75736
 32
        4.00000
 13
        0.00000
 23
       20.00000
 33
        4.00000
999
ZN_1_FLR_1_SEC_5:ZN_1_FLR_1_SEC_5_WALL_1
  0
3DFACE
  8
ZN_1_FLR_1_SEC_5
 62
 43
 10
        4.24264
 20
        4.24264
 30
        4.00000
 11
        4.24264
 21
        4.24264
 31
        0.00000
 12
       35.75736
 22
        4.24264
 32
        0.00000
 13
       35.75736
 23
        4.24264
 33
        4.00000
999
ZN_1_FLR_1_SEC_5:ZN_1_FLR_1_SEC_5_WALL_2
  0
3DFACE
  8
ZN_1_FLR_1_SEC_5
 62
 43
 10
       35.75736
 20
        4.24264
 30
        4.00000
 11
       35.75736
 21
        4.24264
 31
        0.00000
 12
       35.75736
 22
       15.75736
 32
        0.00000
 13
       35.75736
 23
       15.75736
 33
        4.00000
999
ZN_1_FLR_1_SEC_5:ZN_1_FLR_1_SEC_5_WALL_3
  0
3DFACE
  8
ZN_1_FLR_1_SEC_5
 62
 43
 10
       35.75736
 20
       15.75736
 30
        4.00000
 11
       35.75736
 21
       15.75736
 31
        0.00000
 12
        4.24264
 22
       15.75736
 32
        0.00000
 13
        4.24264
 23
       15.75736
 33
        4.00000
999
ZN_1_FLR_1_SEC_5:ZN_1_FLR_1_SEC_5_WALL_4
  0
3DFACE
  8
ZN_1_FLR_1_SEC_5
 62
 43
 10
        4.24264
 20
       15.75736
 30
        4.00000
 11
        4.24264
 21
       15.75736
 31
        0.00000
 12
        4.24264
 22
        4.24264
 32
        0.00000
 13
        4.24264
 23
        4.24264
 33
        4.00000
999
ZN_1_FLR_1_SEC_5:ZN_1_FLR_1_SEC_5_FLOOR
  0
3DFACE
  8
ZN_1_FLR_1_SEC_5
 62
  8
 10
        4.24264
 20
       15.75736
 30
        0.00000
 11
       35.75736
 21
       15.75736
 31
        0.00000
 12
       35.75736
 22
        4.24264
 32
        0.00000
 13
        4.24264
 23
        4.24264
 33
        0.00000
999
ZN_1_FLR_1_SEC_5:ZN_1_FLR_1_SEC_5_CEILING
  0
3DFACE
  8
ZN_1_FLR_1_SEC_5
 62
 15
 10
        4.24264
 20
        4.24264
 30
        4.00000
 11
       35.75736
 21
        4.24264
 31
        4.00000
 12
       35.75736
 22
       15.75736
 32
        4.00000
 13
        4.24264
 23
       15.75736
 33
        4.00000
999
ZN_1_FLR_1_SEC_1:DayRefPt:1
  0
CIRCLE
  8
ZN_1_FLR_1_SEC_1
 62
 10
 10
       20.00000
 20
        2.28500
 30
        0.76200
 40
        0.20000
999
ZN_1_FLR_1_SEC_2:DayRefPt:1
  0
CIRCLE
  8
ZN_1_FLR_1_SEC_2
 62
 10
 10
       37.71500
 20
       10.00000
 30
        0.76200
 40
        0.20000
999
ZN_1_FLR_1_SEC_3:DayRefPt:1
  0
CIRCLE
  8
ZN_1_FLR_1_SEC_3
 62
 10
 10
       19.67264
 20
       18.04236
 30
        0.76200
 40
        0.20000
999
ZN_1_FLR_1_SEC_4:DayRefPt:1
  0
CIRCLE
  8
ZN_1_FLR_1_SEC_4
 62
 10
 10
        2.28500
 20
       10.00000
 30
        0.76200
 40
        0.20000
999
ZN_1_FLR_1_SEC_5:DayRefPt:1
  0
CIRCLE
  8
ZN_1_FLR_1_SEC_5
 62
 10
 10
       19.67264
 20
        9.67264
 30
        0.76200
 40
        0.20000
  0
ENDSEC
  0
EOF
