Program Version,EnergyPlus-Linux-64 8.1.0.009, YMD=2014.08.26 07:09,IDD_Version 8.1.0.009
   ************* IDF Context for following error/warning message:
   ************* Note -- lines truncated at 300 characters, if necessary...
   *************   1912 Zone,
   ************* indicated Name=ZN_1_FLR_1_SEC_1
   ************* Only last 8 lines before error line shown.....
   *************   1913   ZN_1_FLR_1_SEC_1,  !- Name
   *************   1914   0.0000,  !- Direction of Relative North
   *************   1915   0.0000,  !- X Origin
   *************   1916   0.0000,  !- Y Origin
   *************   1917   0.0000,  !- Z Origin
   *************   1918   1,  !- Type
   *************   1919   1,  !- Multiplier
   *************   1920  %h%,  !- Ceiling Height {m}
   ** Severe  ** IP: IDF line~1920 Invalid Number in Numeric Field#7 (Ceiling Height), value=%H%, in ZONE=ZN_1_FLR_1_SEC_1
   ************* IDF Context for following error/warning message:
   ************* Note -- lines truncated at 300 characters, if necessary...
   *************   1927 BuildingSurface:Detailed,
   ************* indicated Name=ZN_1_FLR_1_SEC_1_Wall_1
   ************* Only last 10 lines before error line shown.....
   *************   1929   Wall,  !- Surface Type
   *************   1930   Steel-Framed_R-13 + R-7.5 ci_Ext-wall,  !- Construction Name
   *************   1931   ZN_1_FLR_1_SEC_1,  !- Zone Name
   *************   1932   Outdoors,  !- Outside Boundary Condition
   *************   1933   ,  !- Outside Boundary Condition Object
   *************   1934   SunExposed,  !- Sun Exposure
   *************   1935   WindExposed,  !- Wind Exposure
   *************   1936   AutoCalculate,  !- View Factor to Ground
   *************   1937   4,  !- Number of Vertices
   *************   1938   0.0000,  0.0000,  %h%,  !- X1, Y1, Z1
   ** Severe  ** IP: IDF line~1938 Invalid Number in Numeric Field#5 (Vertex 1 Z-coordinate), value=%H%, in BUILDINGSURFACE:DETAILED=ZN_1_FLR_1_SEC_1_WALL_1
   ************* IDF Context for following error/warning message:
   ************* Note -- lines truncated at 300 characters, if necessary...
   *************   1943 BuildingSurface:Detailed,
   ************* indicated Name=ZN_1_FLR_1_SEC_1_Wall_2
   ************* Only last 10 lines before error line shown.....
   *************   1945   Wall,  !- Surface Type
   *************   1946   Standard_Int-Wall,  !- Construction Name
   *************   1947   ZN_1_FLR_1_SEC_1,  !- Zone Name
   *************   1948   Surface,  !- Outside Boundary Condition
   *************   1949   ZN_1_FLR_1_SEC_2_Wall_4,  !- Outside Boundary Condition Object
   *************   1950   NoSun,  !- Sun Exposure
   *************   1951   NoWind,  !- Wind Exposure
   *************   1952   AutoCalculate,  !- View Factor to Ground
   *************   1953   4,  !- Number of Vertices
   *************   1954   %l%,  0.0000,  %h%,  !- X1, Y1, Z1
   ** Severe  ** IP: IDF line~1954 Invalid Number in Numeric Field#3 (Vertex 1 X-coordinate), value=%L%, in BUILDINGSURFACE:DETAILED=ZN_1_FLR_1_SEC_1_WALL_2
   ************* IDF Context for following error/warning message:
   ************* Note -- lines truncated at 300 characters, if necessary...
   *************   1959 BuildingSurface:Detailed,
   ************* indicated Name=ZN_1_FLR_1_SEC_1_Wall_3
   ************* Only last 10 lines before error line shown.....
   *************   1961   Wall,  !- Surface Type
   *************   1962   Standard_Int-Wall,  !- Construction Name
   *************   1963   ZN_1_FLR_1_SEC_1,  !- Zone Name
   *************   1964   Surface,  !- Outside Boundary Condition
   *************   1965   ZN_1_FLR_1_SEC_5_Wall_1,  !- Outside Boundary Condition Object
   *************   1966   NoSun,  !- Sun Exposure
   *************   1967   NoWind,  !- Wind Exposure
   *************   1968   AutoCalculate,  !- View Factor to Ground
   *************   1969   4,  !- Number of Vertices
   *************   1970   %lminusroot%,  %root%,  %h%,  !- X1, Y1, Z1
   ** Severe  ** IP: IDF line~1970 Invalid Number in Numeric Field#3 (Vertex 1 X-coordinate), value=%LMINUSROOT%, in BUILDINGSURFACE:DETAILED=ZN_1_FLR_1_SEC_1_WALL_3
   ************* IDF Context for following error/warning message:
   ************* Note -- lines truncated at 300 characters, if necessary...
   *************   1975 BuildingSurface:Detailed,
   ************* indicated Name=ZN_1_FLR_1_SEC_1_Wall_4
   ************* Only last 10 lines before error line shown.....
   *************   1977   Wall,  !- Surface Type
   *************   1978   Standard_Int-Wall,  !- Construction Name
   *************   1979   ZN_1_FLR_1_SEC_1,  !- Zone Name
   *************   1980   Surface,  !- Outside Boundary Condition
   *************   1981   ZN_1_FLR_1_SEC_4_Wall_1,  !- Outside Boundary Condition Object
   *************   1982   NoSun,  !- Sun Exposure
   *************   1983   NoWind,  !- Wind Exposure
   *************   1984   AutoCalculate,  !- View Factor to Ground
   *************   1985   4,  !- Number of Vertices
   *************   1986   %root%,  %root%,  %h%,  !- X1, Y1, Z1
   ** Severe  ** IP: IDF line~1986 Invalid Number in Numeric Field#3 (Vertex 1 X-coordinate), value=%ROOT%, in BUILDINGSURFACE:DETAILED=ZN_1_FLR_1_SEC_1_WALL_4
   ************* IDF Context for following error/warning message:
   ************* Note -- lines truncated at 300 characters, if necessary...
   *************   1991 BuildingSurface:Detailed,
   ************* indicated Name=ZN_1_FLR_1_SEC_1_Floor
   ************* Only last 10 lines before error line shown.....
   *************   1993   Floor,  !- Surface Type
   *************   1994   Unheated - 8in Slab with Carpet_Ext-slab,  !- Construction Name
   *************   1995   ZN_1_FLR_1_SEC_1,  !- Zone Name
   *************   1996   Ground,  !- Outside Boundary Condition
   *************   1997   ,  !- Outside Boundary Condition Object
   *************   1998   NoSun,  !- Sun Exposure
   *************   1999   NoWind,  !- Wind Exposure
   *************   2000   AutoCalculate,  !- View Factor to Ground
   *************   2001   4,  !- Number of Vertices
   *************   2002   %root%,  %root%,  0.0000,  !- X1, Y1, Z1
   ** Severe  ** IP: IDF line~2002 Invalid Number in Numeric Field#3 (Vertex 1 X-coordinate), value=%ROOT%, in BUILDINGSURFACE:DETAILED=ZN_1_FLR_1_SEC_1_FLOOR
   ************* IDF Context for following error/warning message:
   ************* Note -- lines truncated at 300 characters, if necessary...
   *************   2007 BuildingSurface:Detailed,
   ************* indicated Name=ZN_1_FLR_1_SEC_1_Ceiling
   ************* Only last 10 lines before error line shown.....
   *************   2009   Roof,  !- Surface Type
   *************   2010   IEAD_R-20 ci_Roof,  !- Construction Name
   *************   2011   ZN_1_FLR_1_SEC_1,  !- Zone Name
   *************   2012   Outdoors,  !- Outside Boundary Condition
   *************   2013   ,  !- Outside Boundary Condition Object
   *************   2014   SunExposed,  !- Sun Exposure
   *************   2015   WindExposed,  !- Wind Exposure
   *************   2016   AutoCalculate,  !- View Factor to Ground
   *************   2017   4,  !- Number of Vertices
   *************   2018   0.0000,  0.0000, %h%,  !- X1, Y1, Z1
   ** Severe  ** IP: IDF line~2018 Invalid Number in Numeric Field#5 (Vertex 1 Z-coordinate), value=%H%, in BUILDINGSURFACE:DETAILED=ZN_1_FLR_1_SEC_1_CEILING
   ************* IDF Context for following error/warning message:
   ************* Note -- lines truncated at 300 characters, if necessary...
   *************   2411 Zone,
   ************* indicated Name=ZN_1_FLR_1_SEC_2
   ************* Only last 3 lines before error line shown.....
   *************   2412   ZN_1_FLR_1_SEC_2,  !- Name
   *************   2413   0.0000,  !- Direction of Relative North
   *************   2414   %l%,  !- X Origin
   ** Severe  ** IP: IDF line~2414 Invalid Number in Numeric Field#2 (X Origin), value=%L%, in ZONE=ZN_1_FLR_1_SEC_2
   ************* IDF Context for following error/warning message:
   ************* Note -- lines truncated at 300 characters, if necessary...
   *************   2426 BuildingSurface:Detailed,
   ************* indicated Name=ZN_1_FLR_1_SEC_2_Wall_1
   ************* Only last 10 lines before error line shown.....
   *************   2428   Wall,  !- Surface Type
   *************   2429   Steel-Framed_R-13 + R-7.5 ci_Ext-wall,  !- Construction Name
   *************   2430   ZN_1_FLR_1_SEC_2,  !- Zone Name
   *************   2431   Outdoors,  !- Outside Boundary Condition
   *************   2432   ,  !- Outside Boundary Condition Object
   *************   2433   SunExposed,  !- Sun Exposure
   *************   2434   WindExposed,  !- Wind Exposure
   *************   2435   AutoCalculate,  !- View Factor to Ground
   *************   2436   4,  !- Number of Vertices
   *************   2437   0.0000,  0.0000, %h%,  !- X1, Y1, Z1
   ** Severe  ** IP: IDF line~2437 Invalid Number in Numeric Field#5 (Vertex 1 Z-coordinate), value=%H%, in BUILDINGSURFACE:DETAILED=ZN_1_FLR_1_SEC_2_WALL_1
   ************* IDF Context for following error/warning message:
   ************* Note -- lines truncated at 300 characters, if necessary...
   *************   2442 BuildingSurface:Detailed,
   ************* indicated Name=ZN_1_FLR_1_SEC_2_Wall_2
   ************* Only last 10 lines before error line shown.....
   *************   2444   Wall,  !- Surface Type
   *************   2445   Standard_Int-Wall,  !- Construction Name
   *************   2446   ZN_1_FLR_1_SEC_2,  !- Zone Name
   *************   2447   Surface,  !- Outside Boundary Condition
   *************   2448   ZN_1_FLR_1_SEC_3_Wall_2,  !- Outside Boundary Condition Object
   *************   2449   NoSun,  !- Sun Exposure
   *************   2450   NoWind,  !- Wind Exposure
   *************   2451   AutoCalculate,  !- View Factor to Ground
   *************   2452   4,  !- Number of Vertices
   *************   2453   0.0000,  20.0000, %h%,  !- X1, Y1, Z1
   ** Severe  ** IP: IDF line~2453 Invalid Number in Numeric Field#5 (Vertex 1 Z-coordinate), value=%H%, in BUILDINGSURFACE:DETAILED=ZN_1_FLR_1_SEC_2_WALL_2
   ************* IDF Context for following error/warning message:
   ************* Note -- lines truncated at 300 characters, if necessary...
   *************   2458 BuildingSurface:Detailed,
   ************* indicated Name=ZN_1_FLR_1_SEC_2_Wall_3
   ************* Only last 10 lines before error line shown.....
   *************   2460   Wall,  !- Surface Type
   *************   2461   Standard_Int-Wall,  !- Construction Name
   *************   2462   ZN_1_FLR_1_SEC_2,  !- Zone Name
   *************   2463   Surface,  !- Outside Boundary Condition
   *************   2464   ZN_1_FLR_1_SEC_5_Wall_2,  !- Outside Boundary Condition Object
   *************   2465   NoSun,  !- Sun Exposure
   *************   2466   NoWind,  !- Wind Exposure
   *************   2467   AutoCalculate,  !- View Factor to Ground
   *************   2468   4,  !- Number of Vertices
   *************   2469   -%root%,  %bminusroot%, %h%,  !- X1, Y1, Z1
   ** Severe  ** IP: IDF line~2469 Invalid Number in Numeric Field#3 (Vertex 1 X-coordinate), value=-%ROOT%, in BUILDINGSURFACE:DETAILED=ZN_1_FLR_1_SEC_2_WALL_3
   ************* IDF Context for following error/warning message:
   ************* Note -- lines truncated at 300 characters, if necessary...
   *************   2474 BuildingSurface:Detailed,
   ************* indicated Name=ZN_1_FLR_1_SEC_2_Wall_4
   ************* Only last 10 lines before error line shown.....
   *************   2476   Wall,  !- Surface Type
   *************   2477   Standard_Int-Wall,  !- Construction Name
   *************   2478   ZN_1_FLR_1_SEC_2,  !- Zone Name
   *************   2479   Surface,  !- Outside Boundary Condition
   *************   2480   ZN_1_FLR_1_SEC_1_Wall_2,  !- Outside Boundary Condition Object
   *************   2481   NoSun,  !- Sun Exposure
   *************   2482   NoWind,  !- Wind Exposure
   *************   2483   AutoCalculate,  !- View Factor to Ground
   *************   2484   4,  !- Number of Vertices
   *************   2485   -%root%,  %root%, %h%,  !- X1, Y1, Z1
   ** Severe  ** IP: IDF line~2485 Invalid Number in Numeric Field#3 (Vertex 1 X-coordinate), value=-%ROOT%, in BUILDINGSURFACE:DETAILED=ZN_1_FLR_1_SEC_2_WALL_4
   ************* IDF Context for following error/warning message:
   ************* Note -- lines truncated at 300 characters, if necessary...
   *************   2490 BuildingSurface:Detailed,
   ************* indicated Name=ZN_1_FLR_1_SEC_2_Floor
   ************* Only last 10 lines before error line shown.....
   *************   2492   Floor,  !- Surface Type
   *************   2493   Unheated - 8in Slab with Carpet_Ext-slab,  !- Construction Name
   *************   2494   ZN_1_FLR_1_SEC_2,  !- Zone Name
   *************   2495   Ground,  !- Outside Boundary Condition
   *************   2496   ,  !- Outside Boundary Condition Object
   *************   2497   NoSun,  !- Sun Exposure
   *************   2498   NoWind,  !- Wind Exposure
   *************   2499   AutoCalculate,  !- View Factor to Ground
   *************   2500   4,  !- Number of Vertices
   *************   2501   -%root%,  %root%,  0.0000,  !- X1, Y1, Z1
   ** Severe  ** IP: IDF line~2501 Invalid Number in Numeric Field#3 (Vertex 1 X-coordinate), value=-%ROOT%, in BUILDINGSURFACE:DETAILED=ZN_1_FLR_1_SEC_2_FLOOR
   ************* IDF Context for following error/warning message:
   ************* Note -- lines truncated at 300 characters, if necessary...
   *************   2506 BuildingSurface:Detailed,
   ************* indicated Name=ZN_1_FLR_1_SEC_2_Ceiling
   ************* Only last 10 lines before error line shown.....
   *************   2508   Roof,  !- Surface Type
   *************   2509   IEAD_R-20 ci_Roof,  !- Construction Name
   *************   2510   ZN_1_FLR_1_SEC_2,  !- Zone Name
   *************   2511   Outdoors,  !- Outside Boundary Condition
   *************   2512   ,  !- Outside Boundary Condition Object
   *************   2513   SunExposed,  !- Sun Exposure
   *************   2514   WindExposed,  !- Wind Exposure
   *************   2515   AutoCalculate,  !- View Factor to Ground
   *************   2516   4,  !- Number of Vertices
   *************   2517   0.0000,  0.0000, %h%,  !- X1, Y1, Z1
   ** Severe  ** IP: IDF line~2517 Invalid Number in Numeric Field#5 (Vertex 1 Z-coordinate), value=%H%, in BUILDINGSURFACE:DETAILED=ZN_1_FLR_1_SEC_2_CEILING
   ************* IDF Context for following error/warning message:
   ************* Note -- lines truncated at 300 characters, if necessary...
   *************   2910 Zone,
   ************* indicated Name=ZN_1_FLR_1_SEC_3
   ************* Only last 3 lines before error line shown.....
   *************   2911   ZN_1_FLR_1_SEC_3,  !- Name
   *************   2912   0.0000,  !- Direction of Relative North
   *************   2913   %root%,  !- X Origin
   ** Severe  ** IP: IDF line~2913 Invalid Number in Numeric Field#2 (X Origin), value=%ROOT%, in ZONE=ZN_1_FLR_1_SEC_3
   ************* IDF Context for following error/warning message:
   ************* Note -- lines truncated at 300 characters, if necessary...
   *************   2925 BuildingSurface:Detailed,
   ************* indicated Name=ZN_1_FLR_1_SEC_3_Wall_1
   ************* Only last 10 lines before error line shown.....
   *************   2927   Wall,  !- Surface Type
   *************   2928   Standard_Int-Wall,  !- Construction Name
   *************   2929   ZN_1_FLR_1_SEC_3,  !- Zone Name
   *************   2930   Surface,  !- Outside Boundary Condition
   *************   2931   ZN_1_FLR_1_SEC_5_Wall_3,  !- Outside Boundary Condition Object
   *************   2932   NoSun,  !- Sun Exposure
   *************   2933   NoWind,  !- Wind Exposure
   *************   2934   AutoCalculate,  !- View Factor to Ground
   *************   2935   4,  !- Number of Vertices
   *************   2936   0.0000,  0.0000, %h%,  !- X1, Y1, Z1
   ** Severe  ** IP: IDF line~2936 Invalid Number in Numeric Field#5 (Vertex 1 Z-coordinate), value=%H%, in BUILDINGSURFACE:DETAILED=ZN_1_FLR_1_SEC_3_WALL_1
   ************* IDF Context for following error/warning message:
   ************* Note -- lines truncated at 300 characters, if necessary...
   *************   2941 BuildingSurface:Detailed,
   ************* indicated Name=ZN_1_FLR_1_SEC_3_Wall_2
   ************* Only last 10 lines before error line shown.....
   *************   2943   Wall,  !- Surface Type
   *************   2944   Standard_Int-Wall,  !- Construction Name
   *************   2945   ZN_1_FLR_1_SEC_3,  !- Zone Name
   *************   2946   Surface,  !- Outside Boundary Condition
   *************   2947   ZN_1_FLR_1_SEC_2_Wall_2,  !- Outside Boundary Condition Object
   *************   2948   NoSun,  !- Sun Exposure
   *************   2949   NoWind,  !- Wind Exposure
   *************   2950   AutoCalculate,  !- View Factor to Ground
   *************   2951   4,  !- Number of Vertices
   *************   2952   %lminustworoot%,  0.0000, %h%,  !- X1, Y1, Z1
   ** Severe  ** IP: IDF line~2952 Invalid Number in Numeric Field#3 (Vertex 1 X-coordinate), value=%LMINUSTWOROOT%, in BUILDINGSURFACE:DETAILED=ZN_1_FLR_1_SEC_3_WALL_2
   ************* IDF Context for following error/warning message:
   ************* Note -- lines truncated at 300 characters, if necessary...
   *************   2957 BuildingSurface:Detailed,
   ************* indicated Name=ZN_1_FLR_1_SEC_3_Wall_3
   ************* Only last 10 lines before error line shown.....
   *************   2959   Wall,  !- Surface Type
   *************   2960   Steel-Framed_R-13 + R-7.5 ci_Ext-wall,  !- Construction Name
   *************   2961   ZN_1_FLR_1_SEC_3,  !- Zone Name
   *************   2962   Outdoors,  !- Outside Boundary Condition
   *************   2963   ,  !- Outside Boundary Condition Object
   *************   2964   SunExposed,  !- Sun Exposure
   *************   2965   WindExposed,  !- Wind Exposure
   *************   2966   AutoCalculate,  !- View Factor to Ground
   *************   2967   4,  !- Number of Vertices
   *************   2968   %lminusroot%,  %root%, %h%,  !- X1, Y1, Z1
   ** Severe  ** IP: IDF line~2968 Invalid Number in Numeric Field#3 (Vertex 1 X-coordinate), value=%LMINUSROOT%, in BUILDINGSURFACE:DETAILED=ZN_1_FLR_1_SEC_3_WALL_3
   ************* IDF Context for following error/warning message:
   ************* Note -- lines truncated at 300 characters, if necessary...
   *************   2973 BuildingSurface:Detailed,
   ************* indicated Name=ZN_1_FLR_1_SEC_3_Wall_4
   ************* Only last 10 lines before error line shown.....
   *************   2975   Wall,  !- Surface Type
   *************   2976   Standard_Int-Wall,  !- Construction Name
   *************   2977   ZN_1_FLR_1_SEC_3,  !- Zone Name
   *************   2978   Surface,  !- Outside Boundary Condition
   *************   2979   ZN_1_FLR_1_SEC_4_Wall_3,  !- Outside Boundary Condition Object
   *************   2980   NoSun,  !- Sun Exposure
   *************   2981   NoWind,  !- Wind Exposure
   *************   2982   AutoCalculate,  !- View Factor to Ground
   *************   2983   4,  !- Number of Vertices
   *************   2984   -%root%,  %root%, %h%,  !- X1, Y1, Z1
   ** Severe  ** IP: IDF line~2984 Invalid Number in Numeric Field#3 (Vertex 1 X-coordinate), value=-%ROOT%, in BUILDINGSURFACE:DETAILED=ZN_1_FLR_1_SEC_3_WALL_4
   ************* IDF Context for following error/warning message:
   ************* Note -- lines truncated at 300 characters, if necessary...
   *************   2989 BuildingSurface:Detailed,
   ************* indicated Name=ZN_1_FLR_1_SEC_3_Floor
   ************* Only last 10 lines before error line shown.....
   *************   2991   Floor,  !- Surface Type
   *************   2992   Unheated - 8in Slab with Carpet_Ext-slab,  !- Construction Name
   *************   2993   ZN_1_FLR_1_SEC_3,  !- Zone Name
   *************   2994   Ground,  !- Outside Boundary Condition
   *************   2995   ,  !- Outside Boundary Condition Object
   *************   2996   NoSun,  !- Sun Exposure
   *************   2997   NoWind,  !- Wind Exposure
   *************   2998   AutoCalculate,  !- View Factor to Ground
   *************   2999   4,  !- Number of Vertices
   *************   3000   -%root%,  %root%,  0.0000,  !- X1, Y1, Z1
   ** Severe  ** IP: IDF line~3000 Invalid Number in Numeric Field#3 (Vertex 1 X-coordinate), value=-%ROOT%, in BUILDINGSURFACE:DETAILED=ZN_1_FLR_1_SEC_3_FLOOR
   ************* IDF Context for following error/warning message:
   ************* Note -- lines truncated at 300 characters, if necessary...
   *************   3005 BuildingSurface:Detailed,
   ************* indicated Name=ZN_1_FLR_1_SEC_3_Ceiling
   ************* Only last 10 lines before error line shown.....
   *************   3007   Roof,  !- Surface Type
   *************   3008   IEAD_R-20 ci_Roof,  !- Construction Name
   *************   3009   ZN_1_FLR_1_SEC_3,  !- Zone Name
   *************   3010   Outdoors,  !- Outside Boundary Condition
   *************   3011   ,  !- Outside Boundary Condition Object
   *************   3012   SunExposed,  !- Sun Exposure
   *************   3013   WindExposed,  !- Wind Exposure
   *************   3014   AutoCalculate,  !- View Factor to Ground
   *************   3015   4,  !- Number of Vertices
   *************   3016   0.0000,  0.0000, %h%,  !- X1, Y1, Z1
   ** Severe  ** IP: IDF line~3016 Invalid Number in Numeric Field#5 (Vertex 1 Z-coordinate), value=%H%, in BUILDINGSURFACE:DETAILED=ZN_1_FLR_1_SEC_3_CEILING
   ************* IDF Context for following error/warning message:
   ************* Note -- lines truncated at 300 characters, if necessary...
   *************   3409 Zone,
   ************* indicated Name=ZN_1_FLR_1_SEC_4
   ************* Only last 8 lines before error line shown.....
   *************   3410   ZN_1_FLR_1_SEC_4,  !- Name
   *************   3411   0.0000,  !- Direction of Relative North
   *************   3412   0.0000,  !- X Origin
   *************   3413   0.0000,  !- Y Origin
   *************   3414   0.0000,  !- Z Origin
   *************   3415   1,  !- Type
   *************   3416   1,  !- Multiplier
   *************   3417  %h%,  !- Ceiling Height {m}
   ** Severe  ** IP: IDF line~3417 Invalid Number in Numeric Field#7 (Ceiling Height), value=%H%, in ZONE=ZN_1_FLR_1_SEC_4
   ************* IDF Context for following error/warning message:
   ************* Note -- lines truncated at 300 characters, if necessary...
   *************   3424 BuildingSurface:Detailed,
   ************* indicated Name=ZN_1_FLR_1_SEC_4_Wall_1
   ************* Only last 10 lines before error line shown.....
   *************   3426   Wall,  !- Surface Type
   *************   3427   Standard_Int-Wall,  !- Construction Name
   *************   3428   ZN_1_FLR_1_SEC_4,  !- Zone Name
   *************   3429   Surface,  !- Outside Boundary Condition
   *************   3430   ZN_1_FLR_1_SEC_1_Wall_4,  !- Outside Boundary Condition Object
   *************   3431   NoSun,  !- Sun Exposure
   *************   3432   NoWind,  !- Wind Exposure
   *************   3433   AutoCalculate,  !- View Factor to Ground
   *************   3434   4,  !- Number of Vertices
   *************   3435   0.0000,  0.0000, %h%,  !- X1, Y1, Z1
   ** Severe  ** IP: IDF line~3435 Invalid Number in Numeric Field#5 (Vertex 1 Z-coordinate), value=%H%, in BUILDINGSURFACE:DETAILED=ZN_1_FLR_1_SEC_4_WALL_1
   ************* IDF Context for following error/warning message:
   ************* Note -- lines truncated at 300 characters, if necessary...
   *************   3440 BuildingSurface:Detailed,
   ************* indicated Name=ZN_1_FLR_1_SEC_4_Wall_2
   ************* Only last 10 lines before error line shown.....
   *************   3442   Wall,  !- Surface Type
   *************   3443   Standard_Int-Wall,  !- Construction Name
   *************   3444   ZN_1_FLR_1_SEC_4,  !- Zone Name
   *************   3445   Surface,  !- Outside Boundary Condition
   *************   3446   ZN_1_FLR_1_SEC_5_Wall_4,  !- Outside Boundary Condition Object
   *************   3447   NoSun,  !- Sun Exposure
   *************   3448   NoWind,  !- Wind Exposure
   *************   3449   AutoCalculate,  !- View Factor to Ground
   *************   3450   4,  !- Number of Vertices
   *************   3451   %root%,  %root%, %h%,  !- X1, Y1, Z1
   ** Severe  ** IP: IDF line~3451 Invalid Number in Numeric Field#3 (Vertex 1 X-coordinate), value=%ROOT%, in BUILDINGSURFACE:DETAILED=ZN_1_FLR_1_SEC_4_WALL_2
   ************* IDF Context for following error/warning message:
   ************* Note -- lines truncated at 300 characters, if necessary...
   *************   3456 BuildingSurface:Detailed,
   ************* indicated Name=ZN_1_FLR_1_SEC_4_Wall_3
   ************* Only last 10 lines before error line shown.....
   *************   3458   Wall,  !- Surface Type
   *************   3459   Standard_Int-Wall,  !- Construction Name
   *************   3460   ZN_1_FLR_1_SEC_4,  !- Zone Name
   *************   3461   Surface,  !- Outside Boundary Condition
   *************   3462   ZN_1_FLR_1_SEC_3_Wall_4,  !- Outside Boundary Condition Object
   *************   3463   NoSun,  !- Sun Exposure
   *************   3464   NoWind,  !- Wind Exposure
   *************   3465   AutoCalculate,  !- View Factor to Ground
   *************   3466   4,  !- Number of Vertices
   *************   3467   %root%,  %bminusroot%, %h%,  !- X1, Y1, Z1
   ** Severe  ** IP: IDF line~3467 Invalid Number in Numeric Field#3 (Vertex 1 X-coordinate), value=%ROOT%, in BUILDINGSURFACE:DETAILED=ZN_1_FLR_1_SEC_4_WALL_3
   ************* IDF Context for following error/warning message:
   ************* Note -- lines truncated at 300 characters, if necessary...
   *************   3472 BuildingSurface:Detailed,
   ************* indicated Name=ZN_1_FLR_1_SEC_4_Wall_4
   ************* Only last 10 lines before error line shown.....
   *************   3474   Wall,  !- Surface Type
   *************   3475   Steel-Framed_R-13 + R-7.5 ci_Ext-wall,  !- Construction Name
   *************   3476   ZN_1_FLR_1_SEC_4,  !- Zone Name
   *************   3477   Outdoors,  !- Outside Boundary Condition
   *************   3478   ,  !- Outside Boundary Condition Object
   *************   3479   SunExposed,  !- Sun Exposure
   *************   3480   WindExposed,  !- Wind Exposure
   *************   3481   AutoCalculate,  !- View Factor to Ground
   *************   3482   4,  !- Number of Vertices
   *************   3483   0.0000,  20.0000, %h%,  !- X1, Y1, Z1
   ** Severe  ** IP: IDF line~3483 Invalid Number in Numeric Field#5 (Vertex 1 Z-coordinate), value=%H%, in BUILDINGSURFACE:DETAILED=ZN_1_FLR_1_SEC_4_WALL_4
   ************* IDF Context for following error/warning message:
   ************* Note -- lines truncated at 300 characters, if necessary...
   *************   3488 BuildingSurface:Detailed,
   ************* indicated Name=ZN_1_FLR_1_SEC_4_Floor
   ************* Only last 10 lines before error line shown.....
   *************   3491   Unheated - 8in Slab with Carpet_Ext-slab,  !- Construction Name
   *************   3492   ZN_1_FLR_1_SEC_4,  !- Zone Name
   *************   3493   Ground,  !- Outside Boundary Condition
   *************   3494   ,  !- Outside Boundary Condition Object
   *************   3495   NoSun,  !- Sun Exposure
   *************   3496   NoWind,  !- Wind Exposure
   *************   3497   AutoCalculate,  !- View Factor to Ground
   *************   3498   4,  !- Number of Vertices
   *************   3499   0.0000,  20.0000,  0.0000,  !- X1, Y1, Z1
   *************   3500   %root%,  %bminusroot%,  0.0000,  !- X2, Y2, Z2
   ** Severe  ** IP: IDF line~3500 Invalid Number in Numeric Field#6 (Vertex 2 X-coordinate), value=%ROOT%, in BUILDINGSURFACE:DETAILED=ZN_1_FLR_1_SEC_4_FLOOR
   ************* IDF Context for following error/warning message:
   ************* Note -- lines truncated at 300 characters, if necessary...
   *************   3504 BuildingSurface:Detailed,
   ************* indicated Name=ZN_1_FLR_1_SEC_4_Ceiling
   ************* Only last 10 lines before error line shown.....
   *************   3506   Roof,  !- Surface Type
   *************   3507   IEAD_R-20 ci_Roof,  !- Construction Name
   *************   3508   ZN_1_FLR_1_SEC_4,  !- Zone Name
   *************   3509   Outdoors,  !- Outside Boundary Condition
   *************   3510   ,  !- Outside Boundary Condition Object
   *************   3511   SunExposed,  !- Sun Exposure
   *************   3512   WindExposed,  !- Wind Exposure
   *************   3513   AutoCalculate,  !- View Factor to Ground
   *************   3514   4,  !- Number of Vertices
   *************   3515   0.0000,  0.0000, %h%,  !- X1, Y1, Z1
   ** Severe  ** IP: IDF line~3515 Invalid Number in Numeric Field#5 (Vertex 1 Z-coordinate), value=%H%, in BUILDINGSURFACE:DETAILED=ZN_1_FLR_1_SEC_4_CEILING
   ************* IDF Context for following error/warning message:
   ************* Note -- lines truncated at 300 characters, if necessary...
   *************   3908 Zone,
   ************* indicated Name=ZN_1_FLR_1_SEC_5
   ************* Only last 3 lines before error line shown.....
   *************   3909   ZN_1_FLR_1_SEC_5,  !- Name
   *************   3910   0.0000,  !- Direction of Relative North
   *************   3911   %root%,  !- X Origin
   ** Severe  ** IP: IDF line~3911 Invalid Number in Numeric Field#2 (X Origin), value=%ROOT%, in ZONE=ZN_1_FLR_1_SEC_5
   ************* IDF Context for following error/warning message:
   ************* Note -- lines truncated at 300 characters, if necessary...
   *************   3923 BuildingSurface:Detailed,
   ************* indicated Name=ZN_1_FLR_1_SEC_5_Wall_1
   ************* Only last 10 lines before error line shown.....
   *************   3925   Wall,  !- Surface Type
   *************   3926   Standard_Int-Wall,  !- Construction Name
   *************   3927   ZN_1_FLR_1_SEC_5,  !- Zone Name
   *************   3928   Surface,  !- Outside Boundary Condition
   *************   3929   ZN_1_FLR_1_SEC_1_Wall_3,  !- Outside Boundary Condition Object
   *************   3930   NoSun,  !- Sun Exposure
   *************   3931   NoWind,  !- Wind Exposure
   *************   3932   AutoCalculate,  !- View Factor to Ground
   *************   3933   4,  !- Number of Vertices
   *************   3934   0.0000,  0.0000, %h%,  !- X1, Y1, Z1
   ** Severe  ** IP: IDF line~3934 Invalid Number in Numeric Field#5 (Vertex 1 Z-coordinate), value=%H%, in BUILDINGSURFACE:DETAILED=ZN_1_FLR_1_SEC_5_WALL_1
   ************* IDF Context for following error/warning message:
   ************* Note -- lines truncated at 300 characters, if necessary...
   *************   3939 BuildingSurface:Detailed,
   ************* indicated Name=ZN_1_FLR_1_SEC_5_Wall_2
   ************* Only last 10 lines before error line shown.....
   *************   3941   Wall,  !- Surface Type
   *************   3942   Standard_Int-Wall,  !- Construction Name
   *************   3943   ZN_1_FLR_1_SEC_5,  !- Zone Name
   *************   3944   Surface,  !- Outside Boundary Condition
   *************   3945   ZN_1_FLR_1_SEC_2_Wall_3,  !- Outside Boundary Condition Object
   *************   3946   NoSun,  !- Sun Exposure
   *************   3947   NoWind,  !- Wind Exposure
   *************   3948   AutoCalculate,  !- View Factor to Ground
   *************   3949   4,  !- Number of Vertices
   *************   3950   %lminustworoot%,  0.0000, %h%,  !- X1, Y1, Z1
   ** Severe  ** IP: IDF line~3950 Invalid Number in Numeric Field#3 (Vertex 1 X-coordinate), value=%LMINUSTWOROOT%, in BUILDINGSURFACE:DETAILED=ZN_1_FLR_1_SEC_5_WALL_2
   ************* IDF Context for following error/warning message:
   ************* Note -- lines truncated at 300 characters, if necessary...
   *************   3955 BuildingSurface:Detailed,
   ************* indicated Name=ZN_1_FLR_1_SEC_5_Wall_3
   ************* Only last 10 lines before error line shown.....
   *************   3957   Wall,  !- Surface Type
   *************   3958   Standard_Int-Wall,  !- Construction Name
   *************   3959   ZN_1_FLR_1_SEC_5,  !- Zone Name
   *************   3960   Surface,  !- Outside Boundary Condition
   *************   3961   ZN_1_FLR_1_SEC_3_Wall_1,  !- Outside Boundary Condition Object
   *************   3962   NoSun,  !- Sun Exposure
   *************   3963   NoWind,  !- Wind Exposure
   *************   3964   AutoCalculate,  !- View Factor to Ground
   *************   3965   4,  !- Number of Vertices
   *************   3966   %lminustworoot%,  %bminustworoot%, %h%,  !- X1, Y1, Z1
   ** Severe  ** IP: IDF line~3966 Invalid Number in Numeric Field#3 (Vertex 1 X-coordinate), value=%LMINUSTWOROOT%, in BUILDINGSURFACE:DETAILED=ZN_1_FLR_1_SEC_5_WALL_3
   ************* IDF Context for following error/warning message:
   ************* Note -- lines truncated at 300 characters, if necessary...
   *************   3971 BuildingSurface:Detailed,
   ************* indicated Name=ZN_1_FLR_1_SEC_5_Wall_4
   ************* Only last 10 lines before error line shown.....
   *************   3973   Wall,  !- Surface Type
   *************   3974   Standard_Int-Wall,  !- Construction Name
   *************   3975   ZN_1_FLR_1_SEC_5,  !- Zone Name
   *************   3976   Surface,  !- Outside Boundary Condition
   *************   3977   ZN_1_FLR_1_SEC_4_Wall_2,  !- Outside Boundary Condition Object
   *************   3978   NoSun,  !- Sun Exposure
   *************   3979   NoWind,  !- Wind Exposure
   *************   3980   AutoCalculate,  !- View Factor to Ground
   *************   3981   4,  !- Number of Vertices
   *************   3982   0.0000,  %bminustworoot%, %h%,  !- X1, Y1, Z1
   ** Severe  ** IP: IDF line~3982 Invalid Number in Numeric Field#4 (Vertex 1 Y-coordinate), value=%BMINUSTWOROOT%, in BUILDINGSURFACE:DETAILED=ZN_1_FLR_1_SEC_5_WALL_4
   ************* IDF Context for following error/warning message:
   ************* Note -- lines truncated at 300 characters, if necessary...
   *************   3987 BuildingSurface:Detailed,
   ************* indicated Name=ZN_1_FLR_1_SEC_5_Floor
   ************* Only last 10 lines before error line shown.....
   *************   3989   Floor,  !- Surface Type
   *************   3990   Unheated - 8in Slab with Carpet_Ext-slab,  !- Construction Name
   *************   3991   ZN_1_FLR_1_SEC_5,  !- Zone Name
   *************   3992   Ground,  !- Outside Boundary Condition
   *************   3993   ,  !- Outside Boundary Condition Object
   *************   3994   NoSun,  !- Sun Exposure
   *************   3995   NoWind,  !- Wind Exposure
   *************   3996   AutoCalculate,  !- View Factor to Ground
   *************   3997   4,  !- Number of Vertices
   *************   3998   0.0000,  %bminustworoot%,  0.0000,  !- X1, Y1, Z1
   ** Severe  ** IP: IDF line~3998 Invalid Number in Numeric Field#4 (Vertex 1 Y-coordinate), value=%BMINUSTWOROOT%, in BUILDINGSURFACE:DETAILED=ZN_1_FLR_1_SEC_5_FLOOR
   ************* IDF Context for following error/warning message:
   ************* Note -- lines truncated at 300 characters, if necessary...
   *************   4003 BuildingSurface:Detailed,
   ************* indicated Name=ZN_1_FLR_1_SEC_5_Ceiling
   ************* Only last 10 lines before error line shown.....
   *************   4005   Roof,  !- Surface Type
   *************   4006   IEAD_R-20 ci_Roof,  !- Construction Name
   *************   4007   ZN_1_FLR_1_SEC_5,  !- Zone Name
   *************   4008   Outdoors,  !- Outside Boundary Condition
   *************   4009   ,  !- Outside Boundary Condition Object
   *************   4010   SunExposed,  !- Sun Exposure
   *************   4011   WindExposed,  !- Wind Exposure
   *************   4012   AutoCalculate,  !- View Factor to Ground
   *************   4013   4,  !- Number of Vertices
   *************   4014   0.0000,  0.0000, %h%,  !- X1, Y1, Z1
   ** Severe  ** IP: IDF line~4014 Invalid Number in Numeric Field#5 (Vertex 1 Z-coordinate), value=%H%, in BUILDINGSURFACE:DETAILED=ZN_1_FLR_1_SEC_5_CEILING
   ** Severe  ** IP: Possible incorrect IDD File
   **   ~~~   ** IDD Version:"IDD_Version 8.1.0.009"
   **   ~~~   ** Possible Invalid Numerics or other problems
   **  Fatal  ** IP: Errors occurred on processing IDF file. Preceding condition(s) cause termination.
   ...Summary of Errors that led to program termination:
   ..... Reference severe error count=36
   ..... Last severe error=IP: Possible incorrect IDD File
   ************* Warning:  Node connection errors not checked - most system input has not been read (see previous warning).
   ************* Fatal error -- final processing.  Program exited before simulations began.  See previous error messages.
   ************* EnergyPlus Warmup Error Summary. During Warmup: 0 Warning; 0 Severe Errors.
   ************* EnergyPlus Sizing Error Summary. During Sizing: 0 Warning; 0 Severe Errors.
   ************* EnergyPlus Terminated--Fatal Error Detected. 0 Warning; 36 Severe Errors; Elapsed Time=00hr 00min  0.88sec
